# generated using pymatgen
data_Zn2B2PbO6
_symmetry_space_group_name_H-M   Pccn
_cell_length_a   5.03378800
_cell_length_b   11.52302100
_cell_length_c   10.74117000
_cell_angle_alpha   90.00000000
_cell_angle_beta   90.00000000
_cell_angle_gamma   90.00000000
_symmetry_Int_Tables_number   56
_chemical_formula_structural   Zn2B2PbO6
_chemical_formula_sum   'Zn8 B8 Pb4 O24'
_cell_volume   623.03560271
_cell_formula_units_Z   4
loop_
 _symmetry_equiv_pos_site_id
 _symmetry_equiv_pos_as_xyz
  1  'x, y, z'
  2  '-x, -y, -z'
  3  '-x+1/2, -y+1/2, z'
  4  'x+1/2, y+1/2, -z'
  5  'x+1/2, -y, -z+1/2'
  6  '-x+1/2, y, z+1/2'
  7  '-x, y+1/2, -z+1/2'
  8  'x, -y+1/2, z+1/2'
loop_
 _atom_type_symbol
 _atom_type_oxidation_number
  Zn2+  2.0
  B3+  3.0
  Pb2+  2.0
  O2-  -2.0
loop_
 _atom_site_type_symbol
 _atom_site_label
 _atom_site_symmetry_multiplicity
 _atom_site_fract_x
 _atom_site_fract_y
 _atom_site_fract_z
 _atom_site_occupancy
  Zn2+  Zn0  8  0.18117300  0.50072900  0.84958500  1
  B3+  B1  8  0.19372900  0.60171000  0.58405600  1
  Pb2+  Pb2  4  0.25000000  0.25000000  0.05941000  1
  O2-  O3  8  0.07797100  0.12464400  0.91056100  1
  O2-  O4  8  0.16038400  0.62347500  0.97747400  1
  O2-  O5  8  0.18185200  0.55318900  0.18686500  1
